<?xml version="1.0" encoding="ISO-8859-1"?>
<febio_spec version="4.0">
	<Module type="solid"/>
	<Control>
		<analysis>STATIC</analysis>
		<time_steps>10</time_steps>
		<step_size>0.1</step_size>
		<plot_zero_state>0</plot_zero_state>
		<plot_range>0,-1</plot_range>
		<plot_level>PLOT_MAJOR_ITRS</plot_level>
		<output_level>OUTPUT_MAJOR_ITRS</output_level>
		<plot_stride>1</plot_stride>
		<output_stride>1</output_stride>
		<adaptor_re_solve>1</adaptor_re_solve>
		<solver type="solid">
			<symmetric_stiffness>symmetric</symmetric_stiffness>
			<equation_scheme>staggered</equation_scheme>
			<equation_order>default</equation_order>
			<optimize_bw>0</optimize_bw>
			<lstol>0.9</lstol>
			<lsmin>0.01</lsmin>
			<lsiter>5</lsiter>
			<ls_check_jacobians>0</ls_check_jacobians>
			<max_refs>25</max_refs>
			<check_zero_diagonal>0</check_zero_diagonal>
			<zero_diagonal_tol>0</zero_diagonal_tol>
			<force_partition>0</force_partition>
			<reform_each_time_step>1</reform_each_time_step>
			<reform_augment>0</reform_augment>
			<diverge_reform>1</diverge_reform>
			<min_residual>1e-20</min_residual>
			<max_residual>0</max_residual>
			<dtol>0.001</dtol>
			<etol>0.01</etol>
			<rtol>0</rtol>
			<rhoi>-2</rhoi>
			<alpha>1</alpha>
			<beta>0.25</beta>
			<gamma>0.5</gamma>
			<logSolve>0</logSolve>
			<arc_length>0</arc_length>
			<arc_length_scale>0</arc_length_scale>
		</solver>
	</Control>
	<Globals>
		<Constants>
			<T>0</T>
			<P>0</P>
			<R>0</R>
			<Fc>0</Fc>
		</Constants>
	</Globals>
	<Material>
		<material id="1" name="Material1" type="neo-Hookean">
			<density>1</density>
			<E>0.5</E>
			<v>0.49</v>
		</material>
	</Material>
	<Mesh>
		<Nodes name="Object1">
			<node id="1">0,0,0</node>
			<node id="2">1,0,0</node>
			<node id="3">2,0,0</node>
			<node id="4">3,0,0</node>
			<node id="5">4,0,0</node>
			<node id="6">5,0,0</node>
			<node id="7">6,0,0</node>
			<node id="8">7,0,0</node>
			<node id="9">8,0,0</node>
			<node id="10">9,0,0</node>
			<node id="11">10,0,0</node>
			<node id="12">11,0,0</node>
			<node id="13">12,0,0</node>
			<node id="14">13,0,0</node>
			<node id="15">14,0,0</node>
			<node id="16">15,0,0</node>
			<node id="17">16,0,0</node>
			<node id="18">17,0,0</node>
			<node id="19">18,0,0</node>
			<node id="20">19,0,0</node>
<!-- ... 232 like lines cut -->
		</Nodes>
		<Elements type="hex8" name="Part1">
			<elem id="1">1,2,23,22,127,128,149,148</elem>
			<elem id="2">2,3,24,23,128,129,150,149</elem>
			<elem id="3">3,4,25,24,129,130,151,150</elem>
			<elem id="4">4,5,26,25,130,131,152,151</elem>
			<elem id="5">5,6,27,26,131,132,153,152</elem>
			<elem id="6">6,7,28,27,132,133,154,153</elem>
			<elem id="7">7,8,29,28,133,134,155,154</elem>
			<elem id="8">8,9,30,29,134,135,156,155</elem>
			<elem id="9">9,10,31,30,135,136,157,156</elem>
			<elem id="10">10,11,32,31,136,137,158,157</elem>
			<elem id="11">11,12,33,32,137,138,159,158</elem>
			<elem id="12">12,13,34,33,138,139,160,159</elem>
			<elem id="13">13,14,35,34,139,140,161,160</elem>
			<elem id="14">14,15,36,35,140,141,162,161</elem>
			<elem id="15">15,16,37,36,141,142,163,162</elem>
			<elem id="16">16,17,38,37,142,143,164,163</elem>
			<elem id="17">17,18,39,38,143,144,165,164</elem>
			<elem id="18">18,19,40,39,144,145,166,165</elem>
			<elem id="19">19,20,41,40,145,146,167,166</elem>
			<elem id="20">20,21,42,41,146,147,168,167</elem>
<!-- ... 80 like lines cut -->
		</Elements>
		<NodeSet name="left_face">
			1, 22, 43, 64, 85, 106, 127, 148,
			169, 190, 211, 232
		</NodeSet>
		<NodeSet name="right_face">
			21, 42, 63, 84, 105, 126, 147, 168,
			189, 210, 231, 252
		</NodeSet>
		<NodeSet name="front_face">
			1, 2, 3, 4, 5, 6, 7, 8,
			9, 10, 11, 12, 13, 14, 15, 16,
			17, 18, 19, 20, 21, 127, 128, 129,
			130, 131, 132, 133, 134, 135, 136, 137,
			138, 139, 140, 141, 142, 143, 144, 145,
			146, 147
		</NodeSet>
		<NodeSet name="back_face">
			106, 107, 108, 109, 110, 111, 112, 113,
			114, 115, 116, 117, 118, 119, 120, 121,
			122, 123, 124, 125, 126, 232, 233, 234,
			235, 236, 237, 238, 239, 240, 241, 242,
			243, 244, 245, 246, 247, 248, 249, 250,
			251, 252
		</NodeSet>
		<NodeSet name="bottom_face">
			1, 2, 3, 4, 5, 6, 7, 8,
			9, 10, 11, 12, 13, 14, 15, 16,
			17, 18, 19, 20, 21, 22, 23, 24,
			25, 26, 27, 28, 29, 30, 31, 32,
			33, 34, 35, 36, 37, 38, 39, 40,
			41, 42, 43, 44, 45, 46, 47, 48,
			49, 50, 51, 52, 53, 54, 55, 56,
			57, 58, 59, 60, 61, 62, 63, 64,
			65, 66, 67, 68, 69, 70, 71, 72,
			73, 74, 75, 76, 77, 78, 79, 80,
			81, 82, 83, 84, 85, 86, 87, 88,
			89, 90, 91, 92, 93, 94, 95, 96,
			97, 98, 99, 100, 101, 102, 103, 104,
			105, 106, 107, 108, 109, 110, 111, 112,
			113, 114, 115, 116, 117, 118, 119, 120,
			121, 122, 123, 124, 125, 126
		</NodeSet>
		<NodeSet name="top_face">
			127, 128, 129, 130, 131, 132, 133, 134,
			135, 136, 137, 138, 139, 140, 141, 142,
			143, 144, 145, 146, 147, 148, 149, 150,
			151, 152, 153, 154, 155, 156, 157, 158,
			159, 160, 161, 162, 163, 164, 165, 166,
			167, 168, 169, 170, 171, 172, 173, 174,
			175, 176, 177, 178, 179, 180, 181, 182,
			183, 184, 185, 186, 187, 188, 189, 190,
			191, 192, 193, 194, 195, 196, 197, 198,
			199, 200, 201, 202, 203, 204, 205, 206,
			207, 208, 209, 210, 211, 212, 213, 214,
			215, 216, 217, 218, 219, 220, 221, 222,
			223, 224, 225, 226, 227, 228, 229, 230,
			231, 232, 233, 234, 235, 236, 237, 238,
			239, 240, 241, 242, 243, 244, 245, 246,
			247, 248, 249, 250, 251, 252
		</NodeSet>
		<NodeSet name="front_left_edge">
			1, 127
		</NodeSet>
		<NodeSet name="bottom_left_edge">
			1, 22, 43, 64, 85, 106
		</NodeSet>
	</Mesh>
	<MeshDomains>
		<SolidDomain name="Part1" mat="Material1"/>
	</MeshDomains>
	<Boundary>
		<bc name="fix_left_x" node_set="left_face" type="zero displacement">
			<x_dof>1</x_dof>
			<y_dof>0</y_dof>
			<z_dof>0</z_dof>
		</bc>
		<bc name="pull_right_x" node_set="right_face" type="prescribed displacement">
			<dof>x</dof>
			<value lc="1">2</value>
			<relative>0</relative>
		</bc>
		<bc name="fix_front_left_y" node_set="front_left_edge" type="zero displacement">
			<x_dof>0</x_dof>
			<y_dof>1</y_dof>
			<z_dof>0</z_dof>
		</bc>
		<bc name="fix_bottom_left_z" node_set="bottom_left_edge" type="zero displacement">
			<x_dof>0</x_dof>
			<y_dof>0</y_dof>
			<z_dof>1</z_dof>
		</bc>
	</Boundary>
	<LoadData>
		<load_controller id="1" name="LC1" type="loadcurve">
			<interpolate>LINEAR</interpolate>
			<extend>CONSTANT</extend>
			<points>
				<pt>0,0</pt>
				<pt>1,1</pt>
			</points>
		</load_controller>
	</LoadData>
	<Output>
		<plotfile type="febio">
			<var type="displacement"/>
			<var type="stress"/>
			<var type="Lagrange strain"/>
			<var type="relative volume"/>
		</plotfile>
	</Output>
</febio_spec>
