<?xml version="1.0" encoding="ISO-8859-1"?>
<febio_spec version="4.0">
	<Module type="solid"/>
	<Control>
		<analysis>STATIC</analysis>
		<time_steps>10</time_steps>
		<step_size>0.1</step_size>
		<plot_zero_state>0</plot_zero_state>
		<plot_range>0,-1</plot_range>
		<plot_level>PLOT_MAJOR_ITRS</plot_level>
		<output_level>OUTPUT_MAJOR_ITRS</output_level>
		<plot_stride>1</plot_stride>
		<output_stride>1</output_stride>
		<adaptor_re_solve>1</adaptor_re_solve>
		<time_stepper type="default">
			<max_retries>5</max_retries>
			<opt_iter>11</opt_iter>
			<dtmin>0</dtmin>
			<dtmax>0.1</dtmax>
			<aggressiveness>0</aggressiveness>
			<cutback>0.5</cutback>
			<dtforce>0</dtforce>
		</time_stepper>
		<solver type="solid">
			<symmetric_stiffness>preferred</symmetric_stiffness>
			<equation_scheme>staggered</equation_scheme>
			<equation_order>default</equation_order>
			<optimize_bw>0</optimize_bw>
			<lstol>0.9</lstol>
			<lsmin>0.01</lsmin>
			<lsiter>5</lsiter>
			<ls_check_jacobians>0</ls_check_jacobians>
			<max_refs>15</max_refs>
			<check_zero_diagonal>0</check_zero_diagonal>
			<zero_diagonal_tol>0</zero_diagonal_tol>
			<force_partition>0</force_partition>
			<reform_each_time_step>1</reform_each_time_step>
			<reform_augment>0</reform_augment>
			<diverge_reform>1</diverge_reform>
			<min_residual>1e-20</min_residual>
			<max_residual>0</max_residual>
			<dtol>0.001</dtol>
			<etol>0.01</etol>
			<rtol>0</rtol>
			<rhoi>-2</rhoi>
			<alpha>1</alpha>
			<beta>0.25</beta>
			<gamma>0.5</gamma>
			<logSolve>0</logSolve>
			<arc_length>0</arc_length>
			<arc_length_scale>0</arc_length_scale>
			<qn_method type="BFGS">
				<max_ups>10</max_ups>
				<max_buffer_size>0</max_buffer_size>
				<cycle_buffer>1</cycle_buffer>
				<cmax>100000</cmax>
			</qn_method>
		</solver>
	</Control>
	<Globals>
		<Constants>
			<T>0</T>
			<P>0</P>
			<R>8.31446</R>
			<Fc>96485.3</Fc>
		</Constants>
	</Globals>
	<Material>
		<material id="1" name="Material1" type="neo-Hookean">
			<density>1</density>
			<E>0.5</E>
			<v>0.49</v>
		</material>
	</Material>
	<Mesh>
		<Nodes name="Sheet">
			<node id="1">-10,-0.5,0</node>
			<node id="2">10,-0.5,0</node>
			<node id="3">10,0.5,0</node>
			<node id="4">-10,0.5,0</node>
			<node id="5">-10,-0.5,10</node>
			<node id="6">10,-0.5,10</node>
			<node id="7">10,0.5,10</node>
			<node id="8">-10,0.5,10</node>
			<node id="9">-9,-0.5,0</node>
			<node id="10">-8,-0.5,0</node>
			<node id="11">-7,-0.5,0</node>
			<node id="12">-6,-0.5,0</node>
			<node id="13">-5,-0.5,0</node>
			<node id="14">-4,-0.5,0</node>
			<node id="15">-3,-0.5,0</node>
			<node id="16">-2,-0.5,0</node>
			<node id="17">-1,-0.5,0</node>
			<node id="18">-8.8817842e-16,-0.5,0</node>
			<node id="19">1,-0.5,0</node>
			<node id="20">2,-0.5,0</node>
<!-- ... 232 like lines cut -->
		</Nodes>
		<Elements type="hex8" name="Part1">
			<elem id="1">1,9,77,4,54,101,195,78</elem>
			<elem id="2">9,10,76,77,101,102,194,195</elem>
			<elem id="3">10,11,75,76,102,103,193,194</elem>
			<elem id="4">11,12,74,75,103,104,192,193</elem>
			<elem id="5">12,13,73,74,104,105,191,192</elem>
			<elem id="6">13,14,72,73,105,106,190,191</elem>
			<elem id="7">14,15,71,72,106,107,189,190</elem>
			<elem id="8">15,16,70,71,107,108,188,189</elem>
			<elem id="9">16,17,69,70,108,109,187,188</elem>
			<elem id="10">17,18,68,69,109,110,186,187</elem>
			<elem id="11">18,19,67,68,110,111,185,186</elem>
			<elem id="12">19,20,66,67,111,112,184,185</elem>
			<elem id="13">20,21,65,66,112,113,183,184</elem>
			<elem id="14">21,22,64,65,113,114,182,183</elem>
			<elem id="15">22,23,63,64,114,115,181,182</elem>
			<elem id="16">23,24,62,63,115,116,180,181</elem>
			<elem id="17">24,25,61,62,116,117,179,180</elem>
			<elem id="18">25,26,60,61,117,118,178,179</elem>
			<elem id="19">26,27,59,60,118,119,177,178</elem>
			<elem id="20">27,2,3,59,119,28,55,177</elem>
<!-- ... 80 like lines cut -->
		</Elements>
		<NodeSet name="ZeroDisplacement1">
			1, 4, 5, 8, 51, 52, 53, 54,
			78, 79, 80, 81
		</NodeSet>
		<NodeSet name="PrescribedDisplacement2">
			2, 3, 6, 7, 28, 29, 30, 31,
			55, 56, 57, 58
		</NodeSet>
		<Edge name="ZeroDisplacement3">
			<line2 id="1">4,1</line2>
		</Edge>
		<Edge name="ZeroDisplacement4">
			<line2 id="1">54,1</line2>
		</Edge>
	</Mesh>
	<MeshDomains>
		<SolidDomain name="Part1" mat="Material1"/>
	</MeshDomains>
	<Boundary>
		<bc name="ZeroDisplacement1" node_set="ZeroDisplacement1" type="zero displacement">
			<x_dof>1</x_dof>
			<y_dof>0</y_dof>
			<z_dof>0</z_dof>
		</bc>
		<bc name="PrescribedDisplacement2" node_set="PrescribedDisplacement2" type="prescribed displacement">
			<dof>x</dof>
			<value lc="1">2</value>
			<relative>0</relative>
		</bc>
		<bc name="ZeroDisplacement3" node_set="@edge:ZeroDisplacement3" type="zero displacement">
			<x_dof>0</x_dof>
			<y_dof>0</y_dof>
			<z_dof>1</z_dof>
		</bc>
		<bc name="ZeroDisplacement4" node_set="@edge:ZeroDisplacement4" type="zero displacement">
			<x_dof>0</x_dof>
			<y_dof>1</y_dof>
			<z_dof>0</z_dof>
		</bc>
	</Boundary>
	<LoadData>
		<load_controller id="1" name="LC2" type="loadcurve">
			<interpolate>LINEAR</interpolate>
			<extend>CONSTANT</extend>
			<points>
				<pt>0,0</pt>
				<pt>1,1</pt>
			</points>
		</load_controller>
	</LoadData>
	<Output>
		<plotfile type="febio">
			<var type="displacement"/>
			<var type="stress"/>
			<var type="relative volume"/>
		</plotfile>
	</Output>
</febio_spec>
