<?xml version="1.0" encoding="ISO-8859-1"?>
<febio_spec version="4.0">

  <Module type="solid">
    <units>mm-N-s</units>
  </Module>

  <Control>
    <analysis type="static"/>
    <time_steps>100</time_steps>
    <step_size>0.01</step_size>
    <time_stepper type="default">
      <max_retries>25</max_retries>
      <opt_iter>11</opt_iter>
      <dtmin>0</dtmin>
      <dtmax>0.1</dtmax>
      <aggressiveness>-2</aggressiveness>
      <cutback>0.5</cutback>
      <dtforce>0</dtforce>
    </time_stepper>
    <solver type="solid">
      <max_refs>25</max_refs>
      <diverge_reform>1</diverge_reform>
      <reform_each_time_step>1</reform_each_time_step>
      <qn_method type="BFGS">
        <max_ups>10</max_ups>
        <max_buffer_size>0</max_buffer_size>
        <cycle_buffer>1</cycle_buffer>
        <cmax>100000</cmax>
      </qn_method>
    </solver>
  </Control>

  <Material>
    <material id="1" name="Intima" type="Fung orthotropic">
      <density>1e-09</density>
      <k>10.0</k>
      <pressure_model>default</pressure_model>
      <E1>0.00711</E1>
      <E2>0.17431</E2>
      <E3>0.17431</E3>
      <G12>0.005</G12>
      <G23>0.06857</G23>
      <G31>0.005</G31>
      <v12>0.0</v12>
      <v23>0.271</v23>
      <v31>0.0</v31>
      <c>0.00658</c>
      <mat_axis type="local">
        <local>1,2,4</local>
      </mat_axis>
    </material>

    <material id="2" name="Media" type="Fung orthotropic">
      <density>1e-09</density>
      <k>10.0</k>
      <pressure_model>default</pressure_model>
      <E1>0.00711</E1>
      <E2>0.17431</E2>
      <E3>0.17431</E3>
      <G12>0.005</G12>
      <G23>0.06857</G23>
      <G31>0.005</G31>
      <v12>0.0</v12>
      <v23>0.271</v23>
      <v31>0.0</v31>
      <c>0.00658</c>
      <mat_axis type="local">
        <local>1,2,4</local>
      </mat_axis>
    </material>

    <material id="3" name="Adventitia" type="Fung orthotropic">
      <density>1e-09</density>
      <k>10.0</k>
      <pressure_model>default</pressure_model>
      <E1>0.00711</E1>
      <E2>0.17431</E2>
      <E3>0.17431</E3>
      <G12>0.005</G12>
      <G23>0.06857</G23>
      <G31>0.005</G31>
      <v12>0.0</v12>
      <v23>0.271</v23>
      <v31>0.0</v31>
      <c>0.00658</c>
      <mat_axis type="local">
        <local>1,2,4</local>
      </mat_axis>
    </material>

  </Material>

  <Mesh>

    <Nodes name="Object1">
      <node id="1">0.0, 0.0, -0.5</node>
      <node id="2">0.25, 0.0, -0.5</node>
      <node id="3">0.5, 0.0, -0.5</node>
      <node id="4">0.75, 0.0, -0.5</node>
      <node id="5">1.0, 0.0, -0.5</node>
      <node id="6">1.25, 0.0, -0.5</node>
      <node id="7">1.5, 0.0, -0.5</node>
      <node id="8">1.75, 0.0, -0.5</node>
      <node id="9">2.0, 0.0, -0.5</node>
      <node id="10">2.25, 0.0, -0.5</node>
      <node id="11">2.5, 0.0, -0.5</node>
      <node id="12">2.75, 0.0, -0.5</node>
      <node id="13">3.0, 0.0, -0.5</node>
      <node id="14">3.25, 0.0, -0.5</node>
      <node id="15">3.5, 0.0, -0.5</node>
      <node id="16">3.75, 0.0, -0.5</node>
      <node id="17">4.0, 0.0, -0.5</node>
      <node id="18">4.25, 0.0, -0.5</node>
      <node id="19">4.5, 0.0, -0.5</node>
      <node id="20">4.75, 0.0, -0.5</node>
<!-- ... 4390 like lines cut -->
    </Nodes>

    <Elements type="hex8" name="Intima">
      <elem id="1">1, 2, 23, 22, 442, 443, 464, 463</elem>
      <elem id="2">2, 3, 24, 23, 443, 444, 465, 464</elem>
      <elem id="3">3, 4, 25, 24, 444, 445, 466, 465</elem>
      <elem id="4">4, 5, 26, 25, 445, 446, 467, 466</elem>
      <elem id="5">5, 6, 27, 26, 446, 447, 468, 467</elem>
      <elem id="6">6, 7, 28, 27, 447, 448, 469, 468</elem>
      <elem id="7">7, 8, 29, 28, 448, 449, 470, 469</elem>
      <elem id="8">8, 9, 30, 29, 449, 450, 471, 470</elem>
      <elem id="9">9, 10, 31, 30, 450, 451, 472, 471</elem>
      <elem id="10">10, 11, 32, 31, 451, 452, 473, 472</elem>
      <elem id="11">11, 12, 33, 32, 452, 453, 474, 473</elem>
      <elem id="12">12, 13, 34, 33, 453, 454, 475, 474</elem>
      <elem id="13">13, 14, 35, 34, 454, 455, 476, 475</elem>
      <elem id="14">14, 15, 36, 35, 455, 456, 477, 476</elem>
      <elem id="15">15, 16, 37, 36, 456, 457, 478, 477</elem>
      <elem id="16">16, 17, 38, 37, 457, 458, 479, 478</elem>
      <elem id="17">17, 18, 39, 38, 458, 459, 480, 479</elem>
      <elem id="18">18, 19, 40, 39, 459, 460, 481, 480</elem>
      <elem id="19">19, 20, 41, 40, 460, 461, 482, 481</elem>
      <elem id="20">20, 21, 42, 41, 461, 462, 483, 482</elem>
<!-- ... 780 like lines cut -->
    </Elements>

    <Elements type="hex8" name="Media">
      <elem id="801">883, 884, 905, 904, 1324, 1325, 1346, 1345</elem>
      <elem id="802">884, 885, 906, 905, 1325, 1326, 1347, 1346</elem>
      <elem id="803">885, 886, 907, 906, 1326, 1327, 1348, 1347</elem>
      <elem id="804">886, 887, 908, 907, 1327, 1328, 1349, 1348</elem>
      <elem id="805">887, 888, 909, 908, 1328, 1329, 1350, 1349</elem>
      <elem id="806">888, 889, 910, 909, 1329, 1330, 1351, 1350</elem>
      <elem id="807">889, 890, 911, 910, 1330, 1331, 1352, 1351</elem>
      <elem id="808">890, 891, 912, 911, 1331, 1332, 1353, 1352</elem>
      <elem id="809">891, 892, 913, 912, 1332, 1333, 1354, 1353</elem>
      <elem id="810">892, 893, 914, 913, 1333, 1334, 1355, 1354</elem>
      <elem id="811">893, 894, 915, 914, 1334, 1335, 1356, 1355</elem>
      <elem id="812">894, 895, 916, 915, 1335, 1336, 1357, 1356</elem>
      <elem id="813">895, 896, 917, 916, 1336, 1337, 1358, 1357</elem>
      <elem id="814">896, 897, 918, 917, 1337, 1338, 1359, 1358</elem>
      <elem id="815">897, 898, 919, 918, 1338, 1339, 1360, 1359</elem>
      <elem id="816">898, 899, 920, 919, 1339, 1340, 1361, 1360</elem>
      <elem id="817">899, 900, 921, 920, 1340, 1341, 1362, 1361</elem>
      <elem id="818">900, 901, 922, 921, 1341, 1342, 1363, 1362</elem>
      <elem id="819">901, 902, 923, 922, 1342, 1343, 1364, 1363</elem>
      <elem id="820">902, 903, 924, 923, 1343, 1344, 1365, 1364</elem>
<!-- ... 1580 like lines cut -->
    </Elements>

    <Elements type="hex8" name="Adventitia">
      <elem id="2401">2647, 2648, 2669, 2668, 3088, 3089, 3110, 3109</elem>
      <elem id="2402">2648, 2649, 2670, 2669, 3089, 3090, 3111, 3110</elem>
      <elem id="2403">2649, 2650, 2671, 2670, 3090, 3091, 3112, 3111</elem>
      <elem id="2404">2650, 2651, 2672, 2671, 3091, 3092, 3113, 3112</elem>
      <elem id="2405">2651, 2652, 2673, 2672, 3092, 3093, 3114, 3113</elem>
      <elem id="2406">2652, 2653, 2674, 2673, 3093, 3094, 3115, 3114</elem>
      <elem id="2407">2653, 2654, 2675, 2674, 3094, 3095, 3116, 3115</elem>
      <elem id="2408">2654, 2655, 2676, 2675, 3095, 3096, 3117, 3116</elem>
      <elem id="2409">2655, 2656, 2677, 2676, 3096, 3097, 3118, 3117</elem>
      <elem id="2410">2656, 2657, 2678, 2677, 3097, 3098, 3119, 3118</elem>
      <elem id="2411">2657, 2658, 2679, 2678, 3098, 3099, 3120, 3119</elem>
      <elem id="2412">2658, 2659, 2680, 2679, 3099, 3100, 3121, 3120</elem>
      <elem id="2413">2659, 2660, 2681, 2680, 3100, 3101, 3122, 3121</elem>
      <elem id="2414">2660, 2661, 2682, 2681, 3101, 3102, 3123, 3122</elem>
      <elem id="2415">2661, 2662, 2683, 2682, 3102, 3103, 3124, 3123</elem>
      <elem id="2416">2662, 2663, 2684, 2683, 3103, 3104, 3125, 3124</elem>
      <elem id="2417">2663, 2664, 2685, 2684, 3104, 3105, 3126, 3125</elem>
      <elem id="2418">2664, 2665, 2686, 2685, 3105, 3106, 3127, 3126</elem>
      <elem id="2419">2665, 2666, 2687, 2686, 3106, 3107, 3128, 3127</elem>
      <elem id="2420">2666, 2667, 2688, 2687, 3107, 3108, 3129, 3128</elem>
<!-- ... 1180 like lines cut -->
    </Elements>

    <NodeSet name="left_face">
      1, 22, 43, 64, 85, 106, 127, 148, 169, 190, 211, 232, 253, 274, 295, 316, 337, 358, 379, 400, 421, 442, 463, 484, 505, 526, 547, 568, 589, 610, 631, 652, 673, 694, 715, 736, 757, 778, 799, 820, 841, 862, 883, 904, 925, 946, 967, 988, 1009, 1030, 1051, 1072, 1093, 1114, 1135, 1156, 1177, 1198, 1219, 1240, 1261, 1282, 1303, 1324, 1345, 1366, 1387, 1408, 1429, 1450, 1471, 1492, 1513, 1534, 1555
    </NodeSet>

    <NodeSet name="right_face">
      21, 42, 63, 84, 105, 126, 147, 168, 189, 210, 231, 252, 273, 294, 315, 336, 357, 378, 399, 420, 441, 462, 483, 504, 525, 546, 567, 588, 609, 630, 651, 672, 693, 714, 735, 756, 777, 798, 819, 840, 861, 882, 903, 924, 945, 966, 987, 1008, 1029, 1050, 1071, 1092, 1113, 1134, 1155, 1176, 1197, 1218, 1239, 1260, 1281, 1302, 1323, 1344, 1365, 1386, 1407, 1428, 1449, 1470, 1491, 1512, 1533, 1554, 1
    </NodeSet>

    <NodeSet name="front_face">
      1, 2, 3, 4, 5, 6, 7, 8, 9, 10, 11, 12, 13, 14, 15, 16, 17, 18, 19, 20, 21, 442, 443, 444, 445, 446, 447, 448, 449, 450, 451, 452, 453, 454, 455, 456, 457, 458, 459, 460, 461, 462, 883, 884, 885, 886, 887, 888, 889, 890, 891, 892, 893, 894, 895, 896, 897, 898, 899, 900, 901, 902, 903, 1324, 1325, 1326, 1327, 1328, 1329, 1330, 1331, 1332, 1333, 1334, 1335, 1336, 1337, 1338, 1339, 1340, 1341, 1
    </NodeSet>

    <NodeSet name="back_face">
      421, 422, 423, 424, 425, 426, 427, 428, 429, 430, 431, 432, 433, 434, 435, 436, 437, 438, 439, 440, 441, 862, 863, 864, 865, 866, 867, 868, 869, 870, 871, 872, 873, 874, 875, 876, 877, 878, 879, 880, 881, 882, 1303, 1304, 1305, 1306, 1307, 1308, 1309, 1310, 1311, 1312, 1313, 1314, 1315, 1316, 1317, 1318, 1319, 1320, 1321, 1322, 1323, 1744, 1745, 1746, 1747, 1748, 1749, 1750, 1751, 1752, 1753
    </NodeSet>

    <NodeSet name="bottom_face">
      1, 2, 3, 4, 5, 6, 7, 8, 9, 10, 11, 12, 13, 14, 15, 16, 17, 18, 19, 20, 21, 22, 23, 24, 25, 26, 27, 28, 29, 30, 31, 32, 33, 34, 35, 36, 37, 38, 39, 40, 41, 42, 43, 44, 45, 46, 47, 48, 49, 50, 51, 52, 53, 54, 55, 56, 57, 58, 59, 60, 61, 62, 63, 64, 65, 66, 67, 68, 69, 70, 71, 72, 73, 74, 75, 76, 77, 78, 79, 80, 81, 82, 83, 84, 85, 86, 87, 88, 89, 90, 91, 92, 93, 94, 95, 96, 97, 98, 99, 100, 10
    </NodeSet>

    <NodeSet name="top_face">
      3970, 3971, 3972, 3973, 3974, 3975, 3976, 3977, 3978, 3979, 3980, 3981, 3982, 3983, 3984, 3985, 3986, 3987, 3988, 3989, 3990, 3991, 3992, 3993, 3994, 3995, 3996, 3997, 3998, 3999, 4000, 4001, 4002, 4003, 4004, 4005, 4006, 4007, 4008, 4009, 4010, 4011, 4012, 4013, 4014, 4015, 4016, 4017, 4018, 4019, 4020, 4021, 4022, 4023, 4024, 4025, 4026, 4027, 4028, 4029, 4030, 4031, 4032, 4033, 4034, 4035
    </NodeSet>

    <NodeSet name="y_anchor">
      1, 442, 883, 1324, 1765, 2206, 2647, 3088, 3529, 3970
    </NodeSet>

    <NodeSet name="z_anchor">
      1
    </NodeSet>

    <NodeSet name="symmetry_x">
      1, 22, 43, 64, 85, 106, 127, 148, 169, 190, 211, 232, 253, 274, 295, 316, 337, 358, 379, 400, 421, 442, 463, 484, 505, 526, 547, 568, 589, 610, 631, 652, 673, 694, 715, 736, 757, 778, 799, 820, 841, 862, 883, 904, 925, 946, 967, 988, 1009, 1030, 1051, 1072, 1093, 1114, 1135, 1156, 1177, 1198, 1219, 1240, 1261, 1282, 1303, 1324, 1345, 1366, 1387, 1408, 1429, 1450, 1471, 1492, 1513, 1534, 1555
    </NodeSet>

    <NodeSet name="symmetry_y">
      1, 2, 3, 4, 5, 6, 7, 8, 9, 10, 11, 12, 13, 14, 15, 16, 17, 18, 19, 20, 21, 442, 443, 444, 445, 446, 447, 448, 449, 450, 451, 452, 453, 454, 455, 456, 457, 458, 459, 460, 461, 462, 883, 884, 885, 886, 887, 888, 889, 890, 891, 892, 893, 894, 895, 896, 897, 898, 899, 900, 901, 902, 903, 1324, 1325, 1326, 1327, 1328, 1329, 1330, 1331, 1332, 1333, 1334, 1335, 1336, 1337, 1338, 1339, 1340, 1341, 1
    </NodeSet>

  </Mesh>

  <MeshDomains>
    <SolidDomain name="Intima" mat="Intima"/>
    <SolidDomain name="Media" mat="Media"/>
    <SolidDomain name="Adventitia" mat="Adventitia"/>
  </MeshDomains>

  <Boundary>
    <bc name="symmetry_x" node_set="symmetry_x" type="zero displacement">
      <x_dof>1</x_dof>
      <y_dof>0</y_dof>
      <z_dof>0</z_dof>
    </bc>

    <bc name="symmetry_y" node_set="symmetry_y" type="zero displacement">
      <x_dof>0</x_dof>
      <y_dof>1</y_dof>
      <z_dof>0</z_dof>
    </bc>

    <bc name="pull_right_x" node_set="right_face" type="prescribed displacement">
      <dof>x</dof>
      <value lc="1">0.1</value>
      <relative>0</relative>
    </bc>

    <bc name="pull_back_y" node_set="back_face" type="prescribed displacement">
      <dof>y</dof>
      <value lc="1">0.1</value>
      <relative>0</relative>
    </bc>

    <bc name="fix_z_anchor" node_set="z_anchor" type="zero displacement">
      <x_dof>0</x_dof>
      <y_dof>0</y_dof>
      <z_dof>1</z_dof>
    </bc>

  </Boundary>

  <LoadData>
    <load_controller id="1" name="LC1" type="loadcurve">
      <interpolate>LINEAR</interpolate>
      <extend>CONSTANT</extend>
      <points>
        <pt>0,0</pt>
        <pt>1,1</pt>
      </points>
    </load_controller>
  </LoadData>

  <Output>
    <plotfile type="febio">
      <var type="displacement"/>
      <var type="stress"/>
      <var type="Lagrange strain"/>
      <var type="relative volume"/>
      <var type="reaction forces"/>
    </plotfile>
    <logfile>
      <node_data data="Rx" file="example_fung_3layer_biaxial_quarter.feb_Rx_data.txt" node_set="right_face"/>
    </logfile>
  </Output>

</febio_spec>
