<?xml version="1.0" encoding="ISO-8859-1"?>
<febio_spec version="4.0">

  <Module type="solid">
    <units>mm-N-s</units>
  </Module>

  <Control>
    <analysis type="static"/>
    <time_steps>100</time_steps>
    <step_size>0.01</step_size>
    <time_stepper type="default">
      <max_retries>25</max_retries>
      <opt_iter>11</opt_iter>
      <dtmin>0</dtmin>
      <dtmax>0.1</dtmax>
      <aggressiveness>-2</aggressiveness>
      <cutback>0.5</cutback>
      <dtforce>0</dtforce>
    </time_stepper>
    <solver type="solid">
      <max_refs>25</max_refs>
      <diverge_reform>1</diverge_reform>
      <reform_each_time_step>1</reform_each_time_step>
      <qn_method type="BFGS">
        <max_ups>10</max_ups>
        <max_buffer_size>0</max_buffer_size>
        <cycle_buffer>1</cycle_buffer>
        <cmax>100000</cmax>
      </qn_method>
    </solver>
  </Control>

  <Material>
    <material id="1" name="Intima-Media" type="neo-Hookean">
      <density>1e-09</density>
      <E>1.0</E>
      <v>0.49</v>
    </material>

    <material id="2" name="Adventitia" type="neo-Hookean">
      <density>1e-09</density>
      <E>1.0</E>
      <v>0.49</v>
    </material>

  </Material>

  <Mesh>

    <Nodes name="Object1">
      <node id="1">0.0, -2.0, -0.5</node>
      <node id="2">0.25, -2.0, -0.5</node>
      <node id="3">0.5, -2.0, -0.5</node>
      <node id="4">0.75, -2.0, -0.5</node>
      <node id="5">1.0, -2.0, -0.5</node>
      <node id="6">1.25, -2.0, -0.5</node>
      <node id="7">1.5, -2.0, -0.5</node>
      <node id="8">1.75, -2.0, -0.5</node>
      <node id="9">2.0, -2.0, -0.5</node>
      <node id="10">2.25, -2.0, -0.5</node>
      <node id="11">2.5, -2.0, -0.5</node>
      <node id="12">2.75, -2.0, -0.5</node>
      <node id="13">3.0, -2.0, -0.5</node>
      <node id="14">3.25, -2.0, -0.5</node>
      <node id="15">3.5, -2.0, -0.5</node>
      <node id="16">3.75, -2.0, -0.5</node>
      <node id="17">4.0, -2.0, -0.5</node>
      <node id="18">4.25, -2.0, -0.5</node>
      <node id="19">4.5, -2.0, -0.5</node>
      <node id="20">4.75, -2.0, -0.5</node>
<!-- ... 1870 like lines cut -->
    </Nodes>

    <Elements type="hex8" name="Intima-Media">
      <elem id="1">1, 2, 23, 22, 190, 191, 212, 211</elem>
      <elem id="2">2, 3, 24, 23, 191, 192, 213, 212</elem>
      <elem id="3">3, 4, 25, 24, 192, 193, 214, 213</elem>
      <elem id="4">4, 5, 26, 25, 193, 194, 215, 214</elem>
      <elem id="5">5, 6, 27, 26, 194, 195, 216, 215</elem>
      <elem id="6">6, 7, 28, 27, 195, 196, 217, 216</elem>
      <elem id="7">7, 8, 29, 28, 196, 197, 218, 217</elem>
      <elem id="8">8, 9, 30, 29, 197, 198, 219, 218</elem>
      <elem id="9">9, 10, 31, 30, 198, 199, 220, 219</elem>
      <elem id="10">10, 11, 32, 31, 199, 200, 221, 220</elem>
      <elem id="11">11, 12, 33, 32, 200, 201, 222, 221</elem>
      <elem id="12">12, 13, 34, 33, 201, 202, 223, 222</elem>
      <elem id="13">13, 14, 35, 34, 202, 203, 224, 223</elem>
      <elem id="14">14, 15, 36, 35, 203, 204, 225, 224</elem>
      <elem id="15">15, 16, 37, 36, 204, 205, 226, 225</elem>
      <elem id="16">16, 17, 38, 37, 205, 206, 227, 226</elem>
      <elem id="17">17, 18, 39, 38, 206, 207, 228, 227</elem>
      <elem id="18">18, 19, 40, 39, 207, 208, 229, 228</elem>
      <elem id="19">19, 20, 41, 40, 208, 209, 230, 229</elem>
      <elem id="20">20, 21, 42, 41, 209, 210, 231, 230</elem>
<!-- ... 940 like lines cut -->
    </Elements>

    <Elements type="hex8" name="Adventitia">
      <elem id="961">1135, 1136, 1157, 1156, 1324, 1325, 1346, 1345</elem>
      <elem id="962">1136, 1137, 1158, 1157, 1325, 1326, 1347, 1346</elem>
      <elem id="963">1137, 1138, 1159, 1158, 1326, 1327, 1348, 1347</elem>
      <elem id="964">1138, 1139, 1160, 1159, 1327, 1328, 1349, 1348</elem>
      <elem id="965">1139, 1140, 1161, 1160, 1328, 1329, 1350, 1349</elem>
      <elem id="966">1140, 1141, 1162, 1161, 1329, 1330, 1351, 1350</elem>
      <elem id="967">1141, 1142, 1163, 1162, 1330, 1331, 1352, 1351</elem>
      <elem id="968">1142, 1143, 1164, 1163, 1331, 1332, 1353, 1352</elem>
      <elem id="969">1143, 1144, 1165, 1164, 1332, 1333, 1354, 1353</elem>
      <elem id="970">1144, 1145, 1166, 1165, 1333, 1334, 1355, 1354</elem>
      <elem id="971">1145, 1146, 1167, 1166, 1334, 1335, 1356, 1355</elem>
      <elem id="972">1146, 1147, 1168, 1167, 1335, 1336, 1357, 1356</elem>
      <elem id="973">1147, 1148, 1169, 1168, 1336, 1337, 1358, 1357</elem>
      <elem id="974">1148, 1149, 1170, 1169, 1337, 1338, 1359, 1358</elem>
      <elem id="975">1149, 1150, 1171, 1170, 1338, 1339, 1360, 1359</elem>
      <elem id="976">1150, 1151, 1172, 1171, 1339, 1340, 1361, 1360</elem>
      <elem id="977">1151, 1152, 1173, 1172, 1340, 1341, 1362, 1361</elem>
      <elem id="978">1152, 1153, 1174, 1173, 1341, 1342, 1363, 1362</elem>
      <elem id="979">1153, 1154, 1175, 1174, 1342, 1343, 1364, 1363</elem>
      <elem id="980">1154, 1155, 1176, 1175, 1343, 1344, 1365, 1364</elem>
<!-- ... 460 like lines cut -->
    </Elements>

    <NodeSet name="left_face">
      1, 22, 43, 64, 85, 106, 127, 148, 169, 190, 211, 232, 253, 274, 295, 316, 337, 358, 379, 400, 421, 442, 463, 484, 505, 526, 547, 568, 589, 610, 631, 652, 673, 694, 715, 736, 757, 778, 799, 820, 841, 862, 883, 904, 925, 946, 967, 988, 1009, 1030, 1051, 1072, 1093, 1114, 1135, 1156, 1177, 1198, 1219, 1240, 1261, 1282, 1303, 1324, 1345, 1366, 1387, 1408, 1429, 1450, 1471, 1492, 1513, 1534, 1555
    </NodeSet>

    <NodeSet name="right_face">
      21, 42, 63, 84, 105, 126, 147, 168, 189, 210, 231, 252, 273, 294, 315, 336, 357, 378, 399, 420, 441, 462, 483, 504, 525, 546, 567, 588, 609, 630, 651, 672, 693, 714, 735, 756, 777, 798, 819, 840, 861, 882, 903, 924, 945, 966, 987, 1008, 1029, 1050, 1071, 1092, 1113, 1134, 1155, 1176, 1197, 1218, 1239, 1260, 1281, 1302, 1323, 1344, 1365, 1386, 1407, 1428, 1449, 1470, 1491, 1512, 1533, 1554, 1
    </NodeSet>

    <NodeSet name="front_face">
      1, 2, 3, 4, 5, 6, 7, 8, 9, 10, 11, 12, 13, 14, 15, 16, 17, 18, 19, 20, 21, 190, 191, 192, 193, 194, 195, 196, 197, 198, 199, 200, 201, 202, 203, 204, 205, 206, 207, 208, 209, 210, 379, 380, 381, 382, 383, 384, 385, 386, 387, 388, 389, 390, 391, 392, 393, 394, 395, 396, 397, 398, 399, 568, 569, 570, 571, 572, 573, 574, 575, 576, 577, 578, 579, 580, 581, 582, 583, 584, 585, 586, 587, 588, 757,
    </NodeSet>

    <NodeSet name="back_face">
      169, 170, 171, 172, 173, 174, 175, 176, 177, 178, 179, 180, 181, 182, 183, 184, 185, 186, 187, 188, 189, 358, 359, 360, 361, 362, 363, 364, 365, 366, 367, 368, 369, 370, 371, 372, 373, 374, 375, 376, 377, 378, 547, 548, 549, 550, 551, 552, 553, 554, 555, 556, 557, 558, 559, 560, 561, 562, 563, 564, 565, 566, 567, 736, 737, 738, 739, 740, 741, 742, 743, 744, 745, 746, 747, 748, 749, 750, 751,
    </NodeSet>

    <NodeSet name="bottom_face">
      1, 2, 3, 4, 5, 6, 7, 8, 9, 10, 11, 12, 13, 14, 15, 16, 17, 18, 19, 20, 21, 22, 23, 24, 25, 26, 27, 28, 29, 30, 31, 32, 33, 34, 35, 36, 37, 38, 39, 40, 41, 42, 43, 44, 45, 46, 47, 48, 49, 50, 51, 52, 53, 54, 55, 56, 57, 58, 59, 60, 61, 62, 63, 64, 65, 66, 67, 68, 69, 70, 71, 72, 73, 74, 75, 76, 77, 78, 79, 80, 81, 82, 83, 84, 85, 86, 87, 88, 89, 90, 91, 92, 93, 94, 95, 96, 97, 98, 99, 100, 10
    </NodeSet>

    <NodeSet name="top_face">
      1702, 1703, 1704, 1705, 1706, 1707, 1708, 1709, 1710, 1711, 1712, 1713, 1714, 1715, 1716, 1717, 1718, 1719, 1720, 1721, 1722, 1723, 1724, 1725, 1726, 1727, 1728, 1729, 1730, 1731, 1732, 1733, 1734, 1735, 1736, 1737, 1738, 1739, 1740, 1741, 1742, 1743, 1744, 1745, 1746, 1747, 1748, 1749, 1750, 1751, 1752, 1753, 1754, 1755, 1756, 1757, 1758, 1759, 1760, 1761, 1762, 1763, 1764, 1765, 1766, 1767
    </NodeSet>

    <NodeSet name="y_anchor">
      85, 274, 463, 652, 841, 1030, 1219, 1408, 1597, 1786
    </NodeSet>

    <NodeSet name="z_anchor">
      1
    </NodeSet>

    <NodeSet name="symmetry_x">
      1, 22, 43, 64, 85, 106, 127, 148, 169, 190, 211, 232, 253, 274, 295, 316, 337, 358, 379, 400, 421, 442, 463, 484, 505, 526, 547, 568, 589, 610, 631, 652, 673, 694, 715, 736, 757, 778, 799, 820, 841, 862, 883, 904, 925, 946, 967, 988, 1009, 1030, 1051, 1072, 1093, 1114, 1135, 1156, 1177, 1198, 1219, 1240, 1261, 1282, 1303, 1324, 1345, 1366, 1387, 1408, 1429, 1450, 1471, 1492, 1513, 1534, 1555
    </NodeSet>

  </Mesh>

  <MeshDomains>
    <SolidDomain name="Intima-Media" mat="Intima-Media"/>
    <SolidDomain name="Adventitia" mat="Adventitia"/>
  </MeshDomains>

  <Boundary>
    <bc name="symmetry_x" node_set="symmetry_x" type="zero displacement">
      <x_dof>1</x_dof>
      <y_dof>0</y_dof>
      <z_dof>0</z_dof>
    </bc>

    <bc name="pull_right_x" node_set="right_face" type="prescribed displacement">
      <dof>x</dof>
      <value lc="1">1.0</value>
      <relative>0</relative>
    </bc>

    <bc name="fix_y_anchor" node_set="y_anchor" type="zero displacement">
      <x_dof>0</x_dof>
      <y_dof>1</y_dof>
      <z_dof>0</z_dof>
    </bc>

    <bc name="fix_z_anchor" node_set="z_anchor" type="zero displacement">
      <x_dof>0</x_dof>
      <y_dof>0</y_dof>
      <z_dof>1</z_dof>
    </bc>

  </Boundary>

  <LoadData>
    <load_controller id="1" name="LC1" type="loadcurve">
      <interpolate>LINEAR</interpolate>
      <extend>CONSTANT</extend>
      <points>
        <pt>0,0</pt>
        <pt>1,1</pt>
      </points>
    </load_controller>
  </LoadData>

  <Output>
    <plotfile type="febio">
      <var type="displacement"/>
      <var type="stress"/>
      <var type="Lagrange strain"/>
      <var type="relative volume"/>
      <var type="reaction forces"/>
    </plotfile>
    <logfile>
      <node_data data="Rx" file="example_neo_hookean_2layer_uniaxial_half.feb_Rx_data.txt" node_set="right_face"/>
    </logfile>
  </Output>

</febio_spec>
